/*--------------------------------*- C++ -*----------------------------------*\
| =========                 |                                                 |
| \\      /  F ield         | OpenFOAM: The Open Source CFD Toolbox           |
|  \\    /   O peration     | Version:  2.4.0                                 |
|   \\  /    A nd           | Web:      www.OpenFOAM.org                      |
|    \\/     M anipulation  |                                                 |
\*---------------------------------------------------------------------------*/
FoamFile
{
    version     2.0;
    format      ascii;
    class       dictionary;
    object      blockMeshDict;
}
// * * * * * * * * * * * * * * * * * * * * * * * * * * * * * * * * * * * * * //

convertToMeters 1;

vertices
(
    (0.0 0.0 -0.05)
    (4.0 0.0 -0.05)
    (0.0 0.1 -0.05)
    (4.0 0.1 -0.05)

    (0.0 0.6 -0.05)
    (4.0 0.6 -0.05)
    (0.0 0.7 -0.05)
    (4.0 0.7 -0.05)

    (0.0 1.2 -0.05)
    (4.0 1.2 -0.05)
    (0.0 1.3 -0.05)
    (4.0 1.3 -0.05)

    (0.0 1.8 -0.05)
    (4.0 1.8 -0.05)
    (0.0 1.9 -0.05)
    (4.0 1.9 -0.05)

    (0.0 0.0 0.05)
    (4.0 0.0 0.05)
    (0.0 0.1 0.05)
    (4.0 0.1 0.05)

    (0.0 0.6 0.05)
    (4.0 0.6 0.05)
    (0.0 0.7 0.05)
    (4.0 0.7 0.05)

    (0.0 1.2 0.05)
    (4.0 1.2 0.05)
    (0.0 1.3 0.05)
    (4.0 1.3 0.05)

    (0.0 1.8 0.05)
    (4.0 1.8 0.05)
    (0.0 1.9 0.05)
    (4.0 1.9 0.05)
);

blocks
(
    hex (0 1 3 2 16 17 19 18)       (80 10 1) simpleGrading (1 1 1)
    hex (4 5 7 6 20 21 23 22)       (80 10 1) simpleGrading (1 1 1)
    hex (8 9 11 10 24 25 27 26)     (80 10 1) simpleGrading (1 1 1)
    hex (12 13 15 14 28 29 31 30)   (80 10 1) simpleGrading (1 1 1)
);

edges
(
);

boundary
(
    F1_1
    {
        type wall;
        faces
        (
            (0 1 17 16)
        );
    }
    F1_2
    {
        type wall;
        faces
        (
            (6 7 23 22)
            
        );
    }
    F1_3
    {
        type wall;
        faces
        (
            (8 9 25 24)
        );
    }
    F1_4
    {
        type wall;
        faces
        (
            (14 15 31 30)
        );
    }
    F2_1
    {
        type wall;
        faces
        (
            (2 3 19 18)
        );
    }
    F2_2
    {
        type wall;
        faces
        (   
            (4 5 21 20)
        );
    }
    F2_3
    {
        type wall;
        faces
        (
            (10 11 27 26)
        );
    }
    F2_4
    {
        type wall;
        faces
        (
            (12 13 29 28)
        );
    }

);

mergePatchPairs
(
);

// ************************************************************************* //
