/*--------------------------------*- C++ -*----------------------------------*\
| =========                 |                                                 |
| \\      /  F ield         | OpenFOAM: The Open Source CFD Toolbox           |
|  \\    /   O peration     | Version:  2.4.0                                 |
|   \\  /    A nd           | Web:      www.OpenFOAM.org                      |
|    \\/     M anipulation  |                                                 |
\*---------------------------------------------------------------------------*/
FoamFile
{
    version     2.0;
    format      ascii;
    class       dictionary;
    location    "constant";
    object      transportProperties;
}
// * * * * * * * * * * * * * * * * * * * * * * * * * * * * * * * * * * * * * //

DT               DT  [ 0  2 -1  0 0 0 0 ] 1;
k                k   [ 1  1 -3 -1 0 0 0 ] 1;
rho              rho [ 1 -3  0  0 0 0 0 ] 1;
Cp               Cp  [ 0  2 -2 -1 0 0 0 ] 100;


// ************************************************************************* //
