/*--------------------------------*- C++ -*----------------------------------*\
| =========                 |                                                 |
| \\      /  F ield         | OpenFOAM: The Open Source CFD Toolbox           |
|  \\    /   O peration     | Version:  2.4.0                                 |
|   \\  /    A nd           | Web:      www.OpenFOAM.org                      |
|    \\/     M anipulation  |                                                 |
\*---------------------------------------------------------------------------*/
FoamFile
{
    version     2.0;
    format      ascii;
    class       dictionary;
    object      blockMeshDict;
}
// * * * * * * * * * * * * * * * * * * * * * * * * * * * * * * * * * * * * * //

convertToMeters 1;

vertices
(

    (0.0  0.0 -0.05)
    (0.15 0.0 -0.05)
    (0.90 0.0 -0.05)
    (1.05 0.0 -0.05)

    (0.0  0.15 -0.05)
    (0.15 0.15 -0.05)
    (0.90 0.15 -0.05)
    (1.05 0.15 -0.05)

    (0.0  0.90 -0.05)
    (0.15 0.90 -0.05)
    (0.90 0.90 -0.05)
    (1.05 0.90 -0.05)

    (0.0  1.05 -0.05)
    (0.15 1.05 -0.05)
    (0.90 1.05 -0.05)
    (1.05 1.05 -0.05)

    (0.0  0.0  0.05)
    (0.15 0.0  0.05)
    (0.90 0.0  0.05)
    (1.05 0.0  0.05)

    (0.0  0.15 0.05)
    (0.15 0.15 0.05)
    (0.90 0.15 0.05)
    (1.05 0.15 0.05)

    (0.0  0.90 0.05)
    (0.15 0.90 0.05)
    (0.90 0.90 0.05)
    (1.05 0.90 0.05)

    (0.0  1.05 0.05)
    (0.15 1.05 0.05)
    (0.90 1.05 0.05)
    (1.05 1.05 0.05)

);

blocks
(
    hex (0 1 5 4 16 17 21 20) (15 15 1) simpleGrading (1 1 1)
    hex (1 2 6 5 17 18 22 21) (90 15 1) simpleGrading (1 1 1)
    hex (2 3 7 6 18 19 23 22) (15 15 1) simpleGrading (1 1 1)

    hex (4 5 9 8 20 21 25 24) (15 90 1) simpleGrading (1 1 1)
    hex (6 7 11 10 22 23 27 26) (15 90 1) simpleGrading (1 1 1)

    hex (8 9 13 12 24 25 29 28) (15 15 1) simpleGrading (1 1 1)
    hex (9 10 14 13 25 26 30 29) (90 15 1) simpleGrading (1 1 1)
    hex (10 11 15 14 26 27 31 30) (15 15 1) simpleGrading (1 1 1)
);

edges
(
);

boundary
(

    hot
    {
        type wall;
        faces
        (
            (0 4 20 16)
            (4 8 24 20)
            (8 12 28 24)
        );
    }

    cold
    {
        type wall;
        faces
        (
            (3 7 23 19)
            (7 11 27 23)
            (11 15 31 27)
        );
    }

    interface_left
    {
        type wall;
        faces
        (
            (5 9 25 21)
        );
    }
    interface_right
    {
        type wall;
        faces
        (
            (6 10 26 22)
        );
    }
    interface_top
    {
        type wall;
        faces
        (
            (9 10 26 25)
        );
    }
    interface_bottom
    {
        type wall;
        faces
        (
            (5 6 22 21)
        );
    }
);

mergePatchPairs
(
);

// ************************************************************************* //
